** PARTS
**
*Part, name=Plate
*Node
1, 0, 0
2, 0.1, 0
3, 0.1, 0.04
4, 0, 0.04
5, 0, 0.02025
6, 0.05, 0.02025
7, 0.05, 0.01975
8, 0, 0.01975
9, 0.00148724342347631, 0
10, 0.00297448684695262, 0
11, 0.004461730270428931, 0
12, 0.00594897369390524, 0
13, 0.00743621711738155, 0
14, 0.008923460540857861, 0
15, 0.01041070396433417, 0
16, 0.01189794738781048, 0
17, 0.01338519081128679, 0
18, 0.0148724342347631, 0
19, 0.01635967765823941, 0
20, 0.01784692108171572, 0
** ... 9469 like lines cut
** UEL ELEMENTS
** U1: Linear softening
** U2: Exponential softening
** U3: Bilinear softneing
** U4: Concrete softening
** U5: Hyperbolic softening
*USER ELEMENT, TYPE=U1, NODES=4, COORDINATES=2, PROPERTIES=7, VARIABLES=12
 1, 2, 11
*ELEMENT, type=U1, elset=pfczm
277, 7501, 7412, 7600, 7524
278, 5976, 5977, 6088, 6106
279, 6106, 6088, 6230, 6248
280, 4664, 4520, 4757, 4857
281, 3671, 2923, 4013, 2988
282, 2683, 2449, 2547, 2910
283, 2292, 2492, 2539, 2293
284, 5822, 5976, 6106, 6069
285, 7640, 7524, 7708, 7744
286, 4184, 3194, 4522, 3667
287, 6373, 6488, 6715, 6525
288, 7361, 7501, 7411, 7209
289, 6734, 6749, 6650, 6715
290, 4887, 5073, 5076, 4910
291, 8091, 8183, 8134, 8023
292, 8795, 8844, 8901, 8882
293, 8183, 8272, 8225, 8134
294, 6967, 6852, 6983, 7175
295, 9369, 9388, 9339, 9364
296, 8007, 8194, 8110, 8022
** ... 9237 like lines cut
*UEL PROPERTY, ELSET=pfczm
** Unit N,m,s
 3.2e10, 0.2, 10.0e6, 3.0, 5e-4, 1.0, 2450.0
** DUMMY ELEMENTS
*ELEMENT,TYPE=CPS4,ELSET=DUMMY
100277, 7501, 7412, 7600, 7524
100278, 5976, 5977, 6088, 6106
100279, 6106, 6088, 6230, 6248
100280, 4664, 4520, 4757, 4857
100281, 3671, 2923, 4013, 2988
100282, 2683, 2449, 2547, 2910
100283, 2292, 2492, 2539, 2293
100284, 5822, 5976, 6106, 6069
100285, 7640, 7524, 7708, 7744
100286, 4184, 3194, 4522, 3667
100287, 6373, 6488, 6715, 6525
100288, 7361, 7501, 7411, 7209
100289, 6734, 6749, 6650, 6715
100290, 4887, 5073, 5076, 4910
100291, 8091, 8183, 8134, 8023
100292, 8795, 8844, 8901, 8882
100293, 8183, 8272, 8225, 8134
100294, 6967, 6852, 6983, 7175
100295, 9369, 9388, 9339, 9364
100296, 8007, 8194, 8110, 8022
** ... 9237 like lines cut
*SOLID SECTION,ELSET=DUMMY,MATERIAL=DUMMY 
*End Part
** ASSEMBLY
**
*Assembly, name=Assembly
**  
*Instance, name=Plate-1, part=Plate
*End Instance
**  
*Nset, nset=BOTTOM, instance=Plate-1
   1,   2,   9,  10,  11,  12,  13,  14,  15,  16,  17,  18,  19,  20,  21,  22
  23,  24,  25,  26,  27,  28,  29,  30,  31,  32,  33,  34,  35,  36,  37,  38
  39,  40,  41,  42,  43,  44,  45,  46,  47,  48,  49,  50,  51,  52,  53,  54
  55,  56,  57,  58,  59,  60,  61,  62,  63,  64,  65,  66,  67,  68,  69,  70
  71,  72,  73,  74,  75,  76,  77,  78,  79,  80,  81,  82,  83,  84,  85,  86
  87,  88,  89,  90,  91,  92,  93,  94,  95,  96,  97,  98,  99, 100, 101, 102
 103, 104, 105, 106, 107, 108, 109, 110, 111, 112, 113, 114, 115, 116, 117, 118
 119, 120, 121, 122, 123, 124, 125, 126, 127, 128, 129, 130, 131, 132, 133, 134
 135, 136, 137, 138, 139, 140, 141, 142, 143, 144, 145
*Nset, nset=TOP, instance=Plate-1
   3,   4, 225, 226, 227, 228, 229, 230, 231, 232, 233, 234, 235, 236, 237, 238
 239, 240, 241, 242, 243, 244, 245, 246, 247, 248, 249, 250, 251, 252, 253, 254
 255, 256, 257, 258, 259, 260, 261, 262, 263, 264, 265, 266, 267, 268, 269, 270
 271, 272, 273, 274, 275, 276, 277, 278, 279, 280, 281, 282, 283, 284, 285, 286
 287, 288, 289, 290, 291, 292, 293, 294, 295, 296, 297, 298, 299, 300, 301, 302
 303, 304, 305, 306, 307, 308, 309, 310, 311, 312, 313, 314, 315, 316, 317, 318
 319, 320, 321, 322, 323, 324, 325, 326, 327, 328, 329, 330, 331, 332, 333, 334
 335, 336, 337, 338, 339, 340, 341, 342, 343, 344, 345, 346, 347, 348, 349, 350
 351, 352, 353, 354, 355, 356, 357, 358, 359, 360, 361
*Nset, nset=damage, instance=Plate-1, generate
   1, 9489, 1
*Elset, elset=pfczm, instance=Plate-1, generate
 100277, 109533, 1
**
*Elset, elset=_Surf-1_S1, internal, instance=Plate-1
  100377,  100443, 101224, 109118, 109125, 109126, 109141, 109142, 109144, 109145, 109147, 109148
*Elset, elset=_Surf-1_S2, internal, instance=Plate-1
 101597, 101663, 108753, 108760, 108764, 108765, 108767, 108768, 108769, 108773, 108774, 108776, 108779, 108780, 108796, 108799
 108801, 108803, 108816, 108817, 108821, 108837, 108838, 108839, 108902, 108903, 108906, 108908, 108911, 108915, 108916, 108918
 108920, 108921, 108922, 108925, 108928, 108929, 108931, 108933, 108935, 108937, 108939, 108941, 108943, 108945, 108946, 108948
 108950, 108952, 108954, 108956, 108958, 108962, 108965, 108966, 108967, 109242
*Elset, elset=_Surf-1_S3, internal, instance=Plate-1
  100514, 108752, 108761, 108763, 108766, 108770, 108771, 108772, 108775, 108777, 108778, 108781, 108798, 108800, 108802, 108804
 108805, 108807, 108808, 108809, 108810, 108811, 108818, 108819, 108820, 108822, 108904, 108905, 108907, 108909, 108910, 108912
 108913, 108914, 108917, 108919, 108923, 108924, 108926, 108927, 108930, 108932, 108934, 108936, 108938, 108940, 108942, 108944
 108947, 108949, 108951, 108953, 108955, 108957, 108963, 108968
*Elset, elset=_Surf-1_S4, internal, instance=Plate-1
  100866,  100867, 108656, 109119, 109120, 109121, 109124, 109127, 109130, 109140, 109143, 109146
*Surface, type=ELEMENT, name=Surf_bottom
_Surf-1_S1, S1
_Surf-1_S2, S2
_Surf-1_S4, S4
_Surf-1_S3, S3
*Elset, elset=_Surf-2_S1, internal, instance=Plate-1
 109122, 109150
*Elset, elset=_Surf-2_S2, internal, instance=Plate-1
  100517, 108756, 108758, 108782, 108784, 108792, 108806, 108813, 108815, 108823, 108825, 108826, 108830, 108831, 108833, 108835
 108840, 108841, 108843, 108845, 108847, 108849, 108851, 108853, 108854, 108856, 108858, 108860, 108862, 108864, 108866, 108868
 108870, 108872, 108873, 108875, 108877, 108879, 108880, 108882, 108884, 108886, 108887, 108889, 108891, 108893, 108895, 108897
 108899, 108900, 108959, 108960, 108964, 108969, 108970, 108971, 108972
*Elset, elset=_Surf-2_S3, internal, instance=Plate-1
 101662, 108754, 108755, 108757, 108759, 108762, 108783, 108785, 108786, 108787, 108788, 108789, 108790, 108791, 108793, 108794
 108795, 108797, 108812, 108814, 108824, 108827, 108828, 108829, 108832, 108834, 108836, 108842, 108844, 108846, 108848, 108850
 108852, 108855, 108857, 108859, 108861, 108863, 108865, 108867, 108869, 108871, 108874, 108876, 108878, 108881, 108883, 108885
 108888, 108890, 108892, 108894, 108896, 108898, 108901, 108961
*Elset, elset=_Surf-2_S4, internal, instance=Plate-1
  100521,  100552, 101223, 108654, 109123, 109128, 109129, 109131, 109132, 109133, 109134, 109135, 109136, 109137, 109138, 109139
 109149, 109151, 109152, 109237, 109371, 109485, 109486
*Surface, type=ELEMENT, name=Surf_top
_Surf-2_S1, S1
_Surf-2_S2, S2
_Surf-2_S4, S4
_Surf-2_S3, S3
**
*End Assembly
** 
** DUMMY MATERIAL
*MATERIAL,NAME=DUMMY
*DENSITY
1.0E-6
*ELASTIC
1.0E-8, 0.2
** 
** ----------------------------------------------------------------
** 
** STEP: Step-1
** 
*Step, name=Step-1, nlgeom=YES, extrapolation=NO, inc=200000
*Dynamic, direct
1e-07,0.00009
**
** LOADS
** 
** ---- Pressure load on the bottom and the top side of the sample
** Name: btm   Type: Pressure
*Dsload
Surf_bottom, P, -1e+06
** Name: top   Type: Pressure
*Dsload
Surf_top, P, -1e+06
** 
** CONTROLS
** 
*Controls, parameters=time incrementation
100, 100, , 100, 100, , , 10, , , 
** OUTPUT REQUESTS
** 
*Restart, write, frequency=1
** 
** FIELD OUTPUT: F-Output-1
** 
*Output, field, frequency=1
*ELEMENT OUTPUT, ELSET=pfczm
E
*NODE OUTPUT,NSET=damage
A, NT, U, V
** 
** HISTORY OUTPUT: H-Output-1
** 
*Output, history, frequency=1
*Surface Output, surface=Surf_top
CF 
*Energy Output 
ALLKE, ALLSE, ALLIE, ETOTAL, ALLVD, ALLWK
*End Step